Circuit: * C:\Users\ianku\OneDrive\Documents\301-Robot\LTSpice\schematic.asc

Direct Newton iteration for .op point succeeded.

Date: Sun Oct 01 10:28:41 2023
Total elapsed time: 0.019 seconds.

tnom = 27
temp = 27
method = trap
totiter = 3
traniter = 0
tranpoints = 0
accept = 0
rejected = 0
matrix size = 17
fillins = 3
solver = Normal
Matrix Compiler1:      49 opcodes
Matrix Compiler2: 1.16 KB object code size
